Circuit: * Z:\home\mayank\Data\Workspaces\Projects\Analog Electronics\3-Phase Equalizer\3-phase-equalizer-band-pass.asc

Direct Newton iteration failed to find .op point.  (Use ".option noopiter" to skip.)
Starting Gmin stepping
Gmin = 10
Gmin = 1.07374
Gmin = 0.115292
Gmin = 0.0123794
Gmin = 0.00132923
Gmin = 0.000142725
Gmin = 1.5325e-005
Gmin = 1.6455e-006
Gmin = 1.76685e-007
Gmin = 1.89714e-008
Gmin = 2.03704e-009
Gmin = 2.18725e-010
Gmin = 2.34854e-011
Gmin = 2.52173e-012
Gmin = 2.70769e-013
Gmin = 0
Gmin stepping succeeded in finding the operating point.


Date: Thu Nov 26 03:16:17 2020
Total elapsed time: 0.590 seconds.

tnom = 27
temp = 27
method = modified trap
totiter = 16013
traniter = 15663
tranpoints = 7828
accept = 5224
rejected = 2604
matrix size = 19
fillins = 4
solver = Normal
Matrix Compiler1: 1.02 KB object code size  3.2/2.9/[2.8]
Matrix Compiler2: off  [3.5]/4.7/3.9

