Circuit: * Z:\home\mayank\Data\Workspaces\Projects\Analog Electronics\3-Phase Equalizer\band-pass-filter.asc


Date: Wed Oct 07 18:55:52 2020
Total elapsed time: 0.048 seconds.

tnom = 27
temp = 27
method = trap
totiter = 0
traniter = 0
tranpoints = 0
accept = 0
rejected = 0
matrix size = 4
fillins = 0
solver = Normal

