Circuit: * Z:\home\mayank\Data\Workspaces\Projects\Analog Electronics\3-Phase Equalizer\band-pass-analysis.asc

.OP point found by inspection.

Date: Thu Oct 08 11:09:29 2020
Total elapsed time: 0.102 seconds.

tnom = 27
temp = 27
method = modified trap
totiter = 2368
traniter = 2368
tranpoints = 1185
accept = 1103
rejected = 82
matrix size = 8
fillins = 0
solver = Normal
Matrix Compiler1: 228 bytes object code size  0.4/0.2/[0.2]
Matrix Compiler2: 460 bytes object code size  0.3/0.3/[0.2]

