Circuit: * Z:\home\mayank\Data\Workspaces\Projects\Analog Electronics\3-Phase Equalizer\band-pass-analysis.asc

.OP point found by inspection.

Date: Tue Oct 13 00:48:17 2020
Total elapsed time: 0.185 seconds.

tnom = 27
temp = 27
method = modified trap
totiter = 2368
traniter = 2368
tranpoints = 1185
accept = 1103
rejected = 82
matrix size = 8
fillins = 0
solver = Normal
Matrix Compiler1: 228 bytes object code size  2.7/2.8/[2.5]
Matrix Compiler2: 460 bytes object code size  2.6/2.8/[2.5]

