Circuit: * Z:\home\mayank\Data\Workspaces\Projects\Analog Electronics\3-Phase Equalizer\high-pass-analysis.asc

.OP point found by inspection.

Date: Thu Oct 08 11:07:54 2020
Total elapsed time: 0.087 seconds.

tnom = 27
temp = 27
method = modified trap
totiter = 2370
traniter = 2370
tranpoints = 1186
accept = 1103
rejected = 83
matrix size = 5
fillins = 0
solver = Normal
Matrix Compiler1: 132 bytes object code size  0.2/0.2/[0.1]
Matrix Compiler2:      25 opcodes  0.2/[0.2]/0.6

