Circuit: * Z:\home\mayank\Data\Workspaces\Projects\Analog Electronics\3-Phase Equalizer\high-pass-analysis.asc

.OP point found by inspection.

Date: Thu Oct 08 00:08:19 2020
Total elapsed time: 0.071 seconds.

tnom = 27
temp = 27
method = modified trap
totiter = 2370
traniter = 2370
tranpoints = 1186
accept = 1103
rejected = 83
matrix size = 5
fillins = 0
solver = Normal
Matrix Compiler1: 132 bytes object code size  2.6/2.5/[2.6]
Matrix Compiler2: 275 bytes object code size  2.7/2.5/[2.5]

