Circuit: * Z:\home\mayank\Data\Workspaces\Projects\Analog Electronics\3-Phase Equalizer\low-pass-analysis.asc

.OP point found by inspection.

Date: Tue Oct 13 00:48:37 2020
Total elapsed time: 0.303 seconds.

tnom = 27
temp = 27
method = modified trap
totiter = 12006
traniter = 12006
tranpoints = 6004
accept = 3625
rejected = 2379
matrix size = 5
fillins = 0
solver = Normal
Matrix Compiler1: 78 bytes object code size  4.4/3.6/[3.2]
Matrix Compiler2:      25 opcodes  4.2/[2.7]/3.2

