Circuit: * C:\users\mayank\My Documents\LTspiceXVII\Projects\3-Phase Equalizer\low-pass-filter.asc


Date: Wed Oct 07 18:06:34 2020
Total elapsed time: 0.045 seconds.

tnom = 27
temp = 27
method = trap
totiter = 0
traniter = 0
tranpoints = 0
accept = 0
rejected = 0
matrix size = 3
fillins = 0
solver = Normal

