Circuit: * Z:\home\mayank\Data\Workspaces\Projects\Analog Electronics\3-Phase Equalizer\3-phase-equalizer-low-pass.asc

Direct Newton iteration failed to find .op point.  (Use ".option noopiter" to skip.)
Starting Gmin stepping
Gmin = 10
Gmin = 1.07374
Gmin = 0.115292
Gmin = 0.0123794
Gmin = 0.00132923
Gmin = 0.000142725
Gmin = 1.5325e-005
Gmin = 1.6455e-006
Gmin = 1.76685e-007
Gmin = 1.89714e-008
Gmin = 2.03704e-009
Gmin = 2.18725e-010
Gmin = 2.34854e-011
Gmin = 2.52173e-012
Gmin = 2.70769e-013
Gmin = 0
Gmin stepping succeeded in finding the operating point.


Date: Thu Nov 26 03:13:46 2020
Total elapsed time: 0.942 seconds.

tnom = 27
temp = 27
method = modified trap
totiter = 39300
traniter = 38950
tranpoints = 19241
accept = 12743
rejected = 6498
matrix size = 19
fillins = 4
solver = Normal
Matrix Compiler1: 1006 bytes object code size  4.6/4.4/[4.4]
Matrix Compiler2:     128 opcodes  3.4/[3.6]/3.8

