Circuit: * Z:\home\mayank\Data\Workspaces\Projects\Analog Electronics\3-Phase Equalizer\high-pass-analysis.asc

.OP point found by inspection.

Date: Thu Nov 26 03:04:41 2020
Total elapsed time: 0.067 seconds.

tnom = 27
temp = 27
method = modified trap
totiter = 2370
traniter = 2370
tranpoints = 1186
accept = 1103
rejected = 83
matrix size = 5
fillins = 0
solver = Normal
Matrix Compiler1: 132 bytes object code size  3.7/3.5/[3.7]
Matrix Compiler2: 275 bytes object code size  3.0/3.7/[3.1]

